Version 4
SHEET 1 1452 680
WIRE -736 -1152 -848 -1152
WIRE -48 -1152 -656 -1152
WIRE -48 -1056 -48 -1152
WIRE -48 -896 224 -992
WIRE -48 -896 -48 -976
WIRE -496 -880 -560 -880
WIRE -224 -880 -416 -880
WIRE -176 -880 -224 -880
WIRE -224 -832 -224 -880
WIRE -48 -832 -48 -896
WIRE -48 -832 -128 -832
WIRE 96 -832 -48 -832
WIRE 208 -832 96 -832
WIRE -176 -800 -176 -880
WIRE -48 -800 -176 -800
WIRE -48 -768 -48 -800
WIRE 0 -768 -48 -768
WIRE -224 -736 -224 -800
WIRE -128 -736 -128 -768
WIRE -128 -736 -224 -736
WIRE -48 -736 -128 -736
WIRE 96 -736 96 -832
WIRE -848 -720 -848 -1152
WIRE -48 -704 -48 -736
WIRE 0 -704 -48 -704
WIRE 208 -704 208 -832
WIRE -176 -656 -176 -800
WIRE 0 -656 -176 -656
WIRE -560 -640 -560 -880
WIRE -48 -624 -48 -704
WIRE 48 -624 -48 -624
WIRE -176 -560 -176 -656
WIRE 96 -560 96 -624
WIRE 96 -560 -176 -560
WIRE -848 -400 -848 -640
WIRE -848 -400 -1008 -400
WIRE -560 -400 -560 -560
WIRE -560 -400 -848 -400
WIRE -48 -400 -48 -624
WIRE -48 -400 -560 -400
WIRE -1008 -352 -1008 -400
FLAG 224 -992 Vp
FLAG -1008 -352 0
SYMBOL res -64 -1072 R0
SYMATTR InstName R3
SYMATTR Value 100
SYMBOL res -400 -896 R90
WINDOW 0 0 56 VBottom 2
WINDOW 3 32 56 VTop 2
SYMATTR InstName R6
SYMATTR Value 1
SYMBOL voltage -848 -736 R0
WINDOW 123 0 0 Left 0
WINDOW 39 24 44 Left 2
SYMATTR SpiceLine Rser=5 Cpar=1u
SYMATTR InstName VP
SYMATTR Value 13
SYMBOL res -640 -1168 R90
WINDOW 0 0 56 VBottom 2
WINDOW 3 32 56 VTop 2
SYMATTR InstName R1
SYMATTR Value 1
SYMBOL voltage -560 -656 R0
WINDOW 123 0 0 Left 0
WINDOW 39 42 63 Left 2
SYMATTR SpiceLine Rser=5 Cpar=1u
SYMATTR InstName V1
SYMATTR Value 0
SYMBOL Edtronix\\n-mos\\smt_irlml-2803_sim 48 -736 R0
SYMATTR InstName U1
TEXT -656 -984 Left 2 ;P-Test
TEXT -448 -544 Left 2 ;DCswipe SRC
TEXT -776 -504 Left 2 !.dc V1 0 6 50u
