Version 4
SHEET 1 1452 680
WIRE -848 -400 -1008 -400
WIRE -560 -400 -848 -400
WIRE -208 -400 -560 -400
WIRE 352 -400 352 -496
WIRE 352 -400 -208 -400
WIRE -1008 -352 -1008 -400
WIRE -560 -272 -560 -400
WIRE -848 -160 -848 -400
WIRE -208 -112 -208 -400
WIRE -112 -112 -208 -112
WIRE 352 -112 352 -192
WIRE 352 -112 96 -112
WIRE -208 -64 -208 -112
WIRE -112 -16 -224 -16
WIRE -96 -16 -112 -16
WIRE -560 80 -560 -192
WIRE -496 80 -560 80
WIRE -224 80 -224 -16
WIRE -224 80 -416 80
WIRE 352 96 352 -112
WIRE 560 96 352 96
WIRE 352 176 352 96
WIRE -848 352 -848 -80
WIRE -736 352 -848 352
WIRE 352 352 352 256
WIRE 352 352 -656 352
FLAG -1008 -352 0
FLAG 560 96 Vn
SYMBOL res 336 272 M180
WINDOW 0 36 76 Left 2
WINDOW 3 36 40 Left 2
SYMATTR InstName R2
SYMATTR Value 100
SYMBOL res -400 96 M270
WINDOW 0 32 56 VTop 2
WINDOW 3 0 56 VBottom 2
SYMATTR InstName R4
SYMATTR Value 1
SYMBOL voltage -848 -176 R0
WINDOW 123 0 0 Left 0
WINDOW 39 24 44 Left 2
SYMATTR SpiceLine Rser=5 Cpar=1u
SYMATTR InstName VN
SYMATTR Value 13
SYMBOL res -640 368 M270
WINDOW 0 32 56 VTop 2
WINDOW 3 0 56 VBottom 2
SYMATTR InstName R5
SYMATTR Value 1
SYMBOL voltage -560 -288 R0
WINDOW 123 0 0 Left 0
WINDOW 39 42 63 Left 2
SYMATTR SpiceLine Rser=5 Cpar=1u
SYMATTR InstName V2
SYMATTR Value 0
SYMBOL Edtronix\\p-mos\\smt_fds4435 -32 -96 R0
SYMATTR InstName U1
TEXT -656 232 Left 2 ;N-Test
TEXT -776 -320 Left 2 !.dc V2 0 6 50u
