Version 4
SHEET 1 3148 872
WIRE 1168 -752 1168 -848
WIRE -800 -560 -944 -640
WIRE -480 -560 -800 -560
WIRE 384 -560 -400 -560
WIRE 768 -560 384 -560
WIRE 1184 -560 768 -560
WIRE 1568 -560 1184 -560
WIRE 1648 -560 1584 -672
WIRE 1648 -560 1568 -560
WIRE 1664 -560 1648 -560
WIRE 2000 -560 2224 -672
WIRE 384 -480 384 -560
WIRE 768 -480 768 -560
WIRE 1184 -480 1184 -560
WIRE 1568 -480 1568 -560
WIRE 1664 -464 1664 -560
WIRE 1728 -464 1664 -464
WIRE 2000 -464 2000 -560
WIRE 2000 -464 1936 -464
WIRE 384 -384 384 -400
WIRE 1664 -368 1664 -464
WIRE 1728 -368 1664 -368
WIRE 768 -352 768 -400
WIRE 1040 -352 768 -352
WIRE 1120 -352 1040 -352
WIRE 1184 -352 1184 -400
WIRE 1728 -320 1664 -320
WIRE 2000 -320 2000 -464
WIRE 2000 -320 1936 -320
WIRE 768 -304 768 -352
WIRE 1040 -304 1040 -352
WIRE 1312 -304 1040 -304
WIRE 1568 -304 1568 -400
WIRE 1568 -304 1440 -304
WIRE 384 -288 384 -304
WIRE 1312 -272 1312 -304
WIRE 1440 -272 1440 -304
WIRE 1152 -256 1152 -272
WIRE 1568 -224 1568 -304
WIRE 1664 -224 1664 -320
WIRE 1664 -224 1568 -224
WIRE 384 -192 384 -208
WIRE 1152 -192 1152 -256
WIRE 1184 -192 1152 -192
WIRE 1312 -160 1312 -192
WIRE 1440 -160 1440 -192
WIRE 384 -64 384 -112
WIRE 448 -64 384 -64
WIRE 384 -16 384 -64
WIRE 768 -16 768 -224
WIRE 1312 0 1312 -80
WIRE 1328 0 1312 0
WIRE 1440 0 1440 -80
WIRE 1440 0 1408 0
WIRE -32 16 -176 16
WIRE 2000 112 2000 -320
WIRE 2128 112 2000 112
WIRE -176 128 -176 16
WIRE -32 128 -32 16
WIRE 304 160 240 160
WIRE 448 160 448 -64
WIRE 464 160 448 160
WIRE 1568 160 1568 -224
WIRE 1568 160 1376 160
WIRE -800 176 -800 -560
WIRE 240 208 96 208
WIRE 464 208 464 160
WIRE 464 208 448 208
WIRE 2000 240 2000 112
WIRE 304 256 304 160
WIRE 304 256 240 256
WIRE 464 256 448 256
WIRE 768 256 768 48
WIRE 768 256 464 256
WIRE 1184 256 1184 -192
WIRE 1344 256 1184 256
WIRE 1568 256 1408 256
WIRE 2128 256 2128 112
WIRE -32 288 -32 192
WIRE 96 288 96 208
WIRE 96 288 -32 288
WIRE 464 304 464 256
WIRE 464 304 448 304
WIRE 2416 320 2464 144
WIRE 2496 320 2416 320
WIRE 2768 320 2496 320
WIRE 1184 336 1184 256
WIRE 1568 336 1568 256
WIRE -32 352 -32 288
WIRE 96 352 96 288
WIRE 2768 352 2768 320
WIRE 240 368 240 304
WIRE 384 368 384 64
WIRE 384 368 240 368
WIRE 768 368 384 368
WIRE 2496 368 2496 320
WIRE 768 400 768 368
WIRE -800 496 -800 256
WIRE -736 496 -800 496
WIRE -32 496 -32 432
WIRE -32 496 -736 496
WIRE 96 496 96 432
WIRE 96 496 -32 496
WIRE 304 496 304 256
WIRE 304 496 96 496
WIRE 768 496 768 464
WIRE 768 496 304 496
WIRE 1184 496 1184 416
WIRE 1184 496 768 496
WIRE 1568 496 1568 416
WIRE 1568 496 1184 496
WIRE 2000 496 2000 320
WIRE 2000 496 1568 496
WIRE 2128 496 2128 320
WIRE 2128 496 2000 496
WIRE 2496 496 2496 448
WIRE 2496 496 2128 496
WIRE 2768 496 2768 432
WIRE 2768 496 2496 496
WIRE -736 544 -736 496
WIRE -1008 624 -800 496
WIRE -176 672 -176 208
WIRE 2256 672 2256 320
WIRE 2256 672 -176 672
FLAG -736 544 0
FLAG 2224 -672 Vavr
FLAG 2464 144 Off-Puls
FLAG 1584 -672 V+
FLAG -1008 624 Ground
FLAG -944 -640 Vakku
SYMBOL res 1984 224 R0
SYMATTR InstName R3
SYMATTR Value 40
SYMBOL voltage -800 160 R0
WINDOW 123 0 0 Left 0
WINDOW 39 -276 94 Left 2
SYMATTR SpiceLine Rser=0.1 Cpar=1u
SYMATTR InstName V1
SYMATTR Value 4.0V
SYMBOL res -384 -576 R90
WINDOW 0 0 56 VBottom 2
WINDOW 3 47 62 VTop 2
SYMATTR InstName Rges
SYMATTR Value 0.1
SYMBOL LED 1152 -912 R0
SYMATTR InstName D1
SYMATTR Value TLSV5100RED
SYMBOL LED 1152 -752 R0
SYMATTR InstName D2
SYMATTR Value TLSV5100RED
SYMBOL zener 752 48 M180
WINDOW 0 24 64 Left 2
WINDOW 3 24 0 Left 2
SYMATTR InstName D3
SYMATTR Value BZX84C2V7L
SYMATTR Description Diode
SYMATTR Type diode
SYMBOL voltage 2768 336 M0
WINDOW 3 -210 216 Left 2
WINDOW 123 0 0 Left 0
WINDOW 39 0 0 Left 0
SYMATTR Value PULSE(0 3 {Toff} 50n 50n {Ton} {Tp} 100)
SYMATTR InstName SWoff
SYMBOL res 2512 352 M0
SYMATTR InstName R1
SYMATTR Value 100k
SYMBOL diode 2080 -496 R0
SYMATTR InstName D4
SYMATTR Value 1N4007
SYMBOL polcap 752 400 R0
WINDOW 3 24 56 Left 2
SYMATTR Value 0.47µ
SYMATTR InstName Ctiming
SYMATTR Description Capacitor
SYMATTR Type cap
SYMATTR SpiceLine V=100 Irms=10m Rser=43 Lser=0 mfg="Nichicon" pn="UPR2AR47MAH" type="Al electrolytic"
SYMBOL polcap 2112 256 R0
WINDOW 3 24 56 Left 2
SYMATTR Value 10µ
SYMATTR InstName C1
SYMATTR Description Capacitor
SYMATTR Type cap
SYMATTR SpiceLine V=12.5 Irms=2.12132 Rser=0.06 Lser=0 mfg="KEMET" pn="A700V106M12RATE060" type="Al electrolytic"
SYMBOL smt_R 1184 384 R0
SYMATTR InstName R21
SYMATTR Value 1000k
SYMATTR SpiceLine tol=1 pwr=0.125
SYMBOL smt_R 1568 384 R0
SYMATTR InstName R22
SYMATTR Value 100k
SYMATTR SpiceLine tol=1 pwr=0.125
SYMBOL smt_R 384 -432 R0
SYMATTR InstName R15
SYMATTR Value 2200k
SYMATTR SpiceLine tol=1 pwr=0.125
SYMBOL smt_R 768 -432 R0
SYMATTR InstName R16
SYMATTR Value 1000k
SYMATTR SpiceLine tol=1 pwr=0.125
SYMBOL smt_R 768 -256 R0
SYMATTR InstName R17
SYMATTR Value 1000k
SYMATTR SpiceLine tol=1 pwr=0.125
SYMBOL smt_R 1568 -432 R0
SYMATTR InstName R20
SYMATTR Value 1000k
SYMATTR SpiceLine tol=1 pwr=0.125
SYMBOL smt_R 96 400 R0
SYMATTR InstName R2
SYMATTR Value 100k
SYMATTR SpiceLine tol=1 pwr=0.125
SYMBOL smt_R 1184 -432 R0
SYMATTR InstName R5
SYMATTR Value 220k
SYMATTR SpiceLine tol=1 pwr=0.125
SYMBOL smt_R 384 16 R180
WINDOW 0 27 12 Left 2
WINDOW 3 27 -8 Left 2
SYMATTR InstName R6
SYMATTR Value 2.2k
SYMATTR SpiceLine tol=1 pwr=0.125
SYMBOL smt_npn 1376 208 R270
WINDOW 3 0 -124 VBottom 2
SYMATTR InstName Q3
SYMBOL smt_pnp 1152 -304 M90
WINDOW 3 38 -72 VTop 2
SYMATTR InstName Q4
SYMBOL smt_C -32 400 R0
SYMATTR InstName C3
SYMATTR Value 100n
SYMBOL smt_R -176 176 R0
SYMATTR InstName R7
SYMATTR Value 300
SYMATTR SpiceLine tol=1 pwr=0.125
SYMBOL Edtronix\\n-mos\\smt_L_fds-6930a 336 192 R0
SYMATTR InstName U2
SYMBOL Edtronix\\n-mos\\smt_L_fds-6930a 336 288 R0
SYMATTR InstName U3
SYMBOL smt_R 384 -336 R0
SYMATTR InstName R4
SYMATTR Value 2200k
SYMATTR SpiceLine tol=1 pwr=0.125
SYMBOL smt_R 384 -240 R0
SYMATTR InstName R8
SYMATTR Value 2200k
SYMATTR SpiceLine tol=1 pwr=0.125
SYMBOL smt_R 384 -144 R0
SYMATTR InstName R9
SYMATTR Value 2200k
SYMATTR SpiceLine tol=1 pwr=0.125
SYMBOL schottky -48 128 R0
SYMATTR InstName D5
SYMATTR Value BAT54
SYMATTR Description Diode
SYMATTR Type diode
SYMBOL smt_R 1312 -240 R180
WINDOW 0 27 12 Left 2
WINDOW 3 27 -8 Left 2
SYMATTR InstName R10
SYMATTR Value 1000k
SYMATTR SpiceLine tol=1 pwr=0.125
SYMBOL smt_R 1312 -128 R180
WINDOW 0 27 12 Left 2
WINDOW 3 27 -8 Left 2
SYMATTR InstName R11
SYMATTR Value 1000k
SYMATTR SpiceLine tol=1 pwr=0.125
SYMBOL smt_R 1440 -240 M180
WINDOW 0 27 12 Left 2
WINDOW 3 27 -8 Left 2
SYMATTR InstName R13
SYMATTR Value 1000k
SYMATTR SpiceLine tol=1 pwr=0.125
SYMBOL smt_R 1440 -128 M180
WINDOW 0 27 12 Left 2
WINDOW 3 27 -8 Left 2
SYMATTR InstName R14
SYMATTR Value 1000k
SYMATTR SpiceLine tol=1 pwr=0.125
SYMBOL smt_R 1376 0 R270
WINDOW 0 23 -8 VTop 2
WINDOW 3 -23 -8 VBottom 2
SYMATTR InstName R18
SYMATTR Value 1000k
SYMATTR SpiceLine tol=1 pwr=0.125
SYMBOL Edtronix\\p-mos\\smt_fds4435 1808 -400 R0
SYMATTR InstName U1
TEXT 440 -872 Left 2 ;.dc V1 2 5 50u
TEXT 440 -832 Left 2 !.dc V1 5 2 50u
TEXT 872 -496 Left 2 ;Set Von [10k-200k]\n( >R = >Von )
TEXT 1304 -496 Left 2 ;Feedback Loop\n(3000k-10000k)
TEXT 2352 -272 Left 2 ;Auswertung: \n~~~~~~~~~~~~~~\nZ:  4V / 100mA \n \nVswON    =  ~3.25V\nVswOFF   = ~2.95V\n.\nInull         =  <0.5uA - 0.25uA\nTtimeout =  ~4s ( 0.47u)        --> ( ~8s/1uF)\n. \nToff(min) =  ~5mS (0.47u)    --> (~10mS/1uF)\nVoff(min) =  >1.8V (R=100k)  (Toff starts with Voff back to 0V="L")
TEXT 552 -176 Left 2 ;Adj (VswON)\n(10k-1000k)
TEXT 440 -784 Left 2 ;.tran 0 12s 100u 200u startup
TEXT 2936 600 Right 2 !.param x=3mS ; PWM blank
TEXT 2936 664 Right 2 !.param Ton=x Toff=Tp-x
TEXT 2936 632 Right 2 !.param Tp=7s
TEXT 1408 -792 Left 2 ;dual led (red) with ~3.2V VcutOff (ref. to BZX 3.3V)
TEXT -1104 48 Left 2 ;Akku (LiI):\n~~~~~~~~~~~~~\n \nVuse   = 4.2 - 3.6V\nVmin   = 3.0V
TEXT 176 568 Left 2 ;Timing Capacity\n(0.5u - 30u)
TEXT 2528 128 Left 2 ;"H"
