Version 4
SHEET 1 3148 1080
WIRE -800 -560 -880 -640
WIRE -480 -560 -800 -560
WIRE 64 -560 -400 -560
WIRE 448 -560 64 -560
WIRE 864 -560 448 -560
WIRE 1248 -560 864 -560
WIRE 1328 -560 1232 -656
WIRE 1328 -560 1248 -560
WIRE 1344 -560 1328 -560
WIRE 1680 -560 1760 -656
WIRE 64 -496 64 -560
WIRE 448 -480 448 -560
WIRE 864 -480 864 -560
WIRE 1248 -480 1248 -560
WIRE 1344 -464 1344 -560
WIRE 1408 -464 1344 -464
WIRE 1680 -464 1680 -560
WIRE 1680 -464 1616 -464
WIRE 64 -400 64 -416
WIRE 1344 -368 1344 -464
WIRE 1408 -368 1344 -368
WIRE 448 -352 448 -400
WIRE 720 -352 448 -352
WIRE 800 -352 720 -352
WIRE 864 -352 864 -400
WIRE 1408 -320 1344 -320
WIRE 1680 -320 1680 -464
WIRE 1680 -320 1616 -320
WIRE 64 -304 64 -320
WIRE 448 -304 448 -352
WIRE 720 -304 720 -352
WIRE 992 -304 720 -304
WIRE 1248 -304 1248 -400
WIRE 1248 -304 1120 -304
WIRE 992 -272 992 -304
WIRE 1120 -272 1120 -304
WIRE -624 -256 -624 -352
WIRE 832 -256 832 -272
WIRE 1248 -224 1248 -304
WIRE 1344 -224 1344 -320
WIRE 1344 -224 1248 -224
WIRE 64 -208 64 -224
WIRE 832 -192 832 -256
WIRE 864 -192 832 -192
WIRE 992 -160 992 -192
WIRE 1120 -160 1120 -192
WIRE 64 -112 64 -128
WIRE 448 -16 448 -224
WIRE 992 0 992 -80
WIRE 1008 0 992 0
WIRE 1120 0 1120 -80
WIRE 1120 0 1088 0
WIRE -352 16 -496 16
WIRE 64 16 64 -32
WIRE 64 16 -16 16
WIRE 64 64 64 16
WIRE 1680 112 1680 -320
WIRE 1680 112 1616 112
WIRE 1744 112 1680 112
WIRE -496 128 -496 16
WIRE -352 128 -352 16
WIRE 1248 160 1248 -224
WIRE 1248 160 1056 160
WIRE -800 176 -800 -560
WIRE -112 208 -224 208
WIRE 64 208 64 144
WIRE 336 208 64 208
WIRE -16 240 -16 16
WIRE 448 240 448 48
WIRE 448 240 432 240
WIRE 1616 240 1616 112
WIRE 864 256 864 -192
WIRE 1024 256 864 256
WIRE 1248 256 1088 256
WIRE 1744 256 1744 112
WIRE -352 288 -352 192
WIRE -224 288 -224 208
WIRE -224 288 -352 288
WIRE 864 336 864 256
WIRE 1248 336 1248 256
WIRE -352 352 -352 288
WIRE -224 352 -224 288
WIRE 64 400 64 208
WIRE -800 496 -800 256
WIRE -736 496 -800 496
WIRE -608 496 -736 496
WIRE -352 496 -352 432
WIRE -352 496 -608 496
WIRE -224 496 -224 432
WIRE -224 496 -352 496
WIRE -112 496 -112 272
WIRE -112 496 -224 496
WIRE 64 496 64 464
WIRE 64 496 -112 496
WIRE 336 496 336 272
WIRE 336 496 64 496
WIRE 864 496 864 416
WIRE 864 496 336 496
WIRE 1248 496 1248 416
WIRE 1248 496 864 496
WIRE 1616 496 1616 320
WIRE 1616 496 1248 496
WIRE 1744 496 1744 320
WIRE 1744 496 1616 496
WIRE -736 544 -736 496
WIRE -928 608 -800 496
WIRE -496 752 -496 208
WIRE -368 752 -496 752
WIRE -288 752 -368 752
WIRE -16 752 -288 752
WIRE -16 784 -16 752
WIRE -288 800 -288 752
WIRE -528 880 -368 752
WIRE -608 928 -608 496
WIRE -288 928 -288 880
WIRE -288 928 -608 928
WIRE -16 928 -16 864
WIRE -16 928 -288 928
FLAG -736 544 0
FLAG 1760 -656 Vavr
FLAG -528 880 Off-Puls
FLAG 1232 -656 V+
FLAG -928 608 Ground
FLAG -880 -640 Vakku
SYMBOL res 1600 224 R0
SYMATTR InstName R3
SYMATTR Value 40
SYMBOL voltage -800 160 R0
WINDOW 123 0 0 Left 0
WINDOW 39 -276 94 Left 2
SYMATTR SpiceLine Rser=0.1 Cpar=1u
SYMATTR InstName V1
SYMATTR Value 4.0V
SYMBOL res -384 -576 R90
WINDOW 0 0 56 VBottom 2
WINDOW 3 47 62 VTop 2
SYMATTR InstName Rges
SYMATTR Value 0.1
SYMBOL LED -640 -416 R0
SYMATTR InstName D1
SYMATTR Value TLSV5100RED
SYMBOL LED -640 -256 R0
SYMATTR InstName D2
SYMATTR Value TLSV5100RED
SYMBOL zener 432 48 M180
WINDOW 0 24 64 Left 2
WINDOW 3 24 0 Left 2
SYMATTR InstName D3
SYMATTR Value BZX84C2V7L
SYMATTR Description Diode
SYMATTR Type diode
SYMBOL voltage -16 768 M0
WINDOW 3 -615 4 Left 2
WINDOW 123 0 0 Left 0
WINDOW 39 0 0 Left 0
SYMATTR Value PULSE(0 2.5 {Toff} 50n 50n {Ton} {Tp} 100)
SYMATTR InstName SWoff
SYMBOL res -272 784 M0
SYMATTR InstName R1
SYMATTR Value 100k
SYMBOL diode 1728 -240 R0
SYMATTR InstName D4
SYMATTR Value 1N4007
SYMBOL polcap 48 400 R0
WINDOW 3 24 56 Left 2
SYMATTR Value 2.2µ
SYMATTR InstName Ctiming
SYMATTR Description Capacitor
SYMATTR Type cap
SYMATTR SpiceLine V=16 Irms=0 Rser=6.5 Lser=0 mfg="AVX" pn="TAJA225K016" type="Tantalum"
SYMBOL polcap 1728 256 R0
WINDOW 3 24 56 Left 2
SYMATTR Value 10µ
SYMATTR InstName C1
SYMATTR Description Capacitor
SYMATTR Type cap
SYMATTR SpiceLine V=12.5 Irms=2.12132 Rser=0.06 Lser=0 mfg="KEMET" pn="A700V106M12RATE060" type="Al electrolytic"
SYMBOL smt_R 864 384 R0
SYMATTR InstName R21
SYMATTR Value 1000k
SYMATTR SpiceLine tol=1 pwr=0.125
SYMBOL smt_R 1248 384 R0
SYMATTR InstName R22
SYMATTR Value 100k
SYMATTR SpiceLine tol=1 pwr=0.125
SYMBOL smt_R 64 -352 R0
SYMATTR InstName R15
SYMATTR Value 1250k
SYMATTR SpiceLine tol=1 pwr=0.125
SYMBOL smt_R 448 -432 R0
SYMATTR InstName R16
SYMATTR Value 1000k
SYMATTR SpiceLine tol=1 pwr=0.125
SYMBOL smt_R 448 -256 R0
SYMATTR InstName R17
SYMATTR Value 1000k
SYMATTR SpiceLine tol=1 pwr=0.125
SYMBOL smt_R 1248 -432 R0
SYMATTR InstName R20
SYMATTR Value 1000k
SYMATTR SpiceLine tol=1 pwr=0.125
SYMBOL smt_R -224 400 R0
SYMATTR InstName R2
SYMATTR Value 100k
SYMATTR SpiceLine tol=1 pwr=0.125
SYMBOL smt_R 864 -432 R0
SYMATTR InstName R5
SYMATTR Value 220k
SYMATTR SpiceLine tol=1 pwr=0.125
SYMBOL smt_R 64 96 R180
WINDOW 0 27 12 Left 2
WINDOW 3 27 -8 Left 2
SYMATTR InstName R6
SYMATTR Value 2.2k
SYMATTR SpiceLine tol=1 pwr=0.125
SYMBOL smt_npn 1056 208 R270
WINDOW 3 0 -124 VBottom 2
SYMATTR InstName Q3
SYMBOL smt_pnp 832 -304 M90
WINDOW 3 38 -72 VTop 2
SYMATTR InstName Q4
SYMBOL smt_C -352 400 R0
SYMATTR InstName C3
SYMATTR Value 100n
SYMBOL smt_R -496 176 R0
SYMATTR InstName R7
SYMATTR Value 300
SYMATTR SpiceLine tol=1 pwr=0.125
SYMBOL smt_R 64 -256 R0
SYMATTR InstName R4
SYMATTR Value 1250k
SYMATTR SpiceLine tol=1 pwr=0.125
SYMBOL smt_R 64 -160 R0
SYMATTR InstName R8
SYMATTR Value 1250k
SYMATTR SpiceLine tol=1 pwr=0.125
SYMBOL smt_R 64 -64 R0
SYMATTR InstName R9
SYMATTR Value 1250k
SYMATTR SpiceLine tol=1 pwr=0.125
SYMBOL schottky -368 128 R0
SYMATTR InstName D5
SYMATTR Value BAT54
SYMATTR Description Diode
SYMATTR Type diode
SYMBOL smt_R 992 -240 R180
WINDOW 0 27 12 Left 2
WINDOW 3 27 -8 Left 2
SYMATTR InstName R10
SYMATTR Value 1250k
SYMATTR SpiceLine tol=1 pwr=0.125
SYMBOL smt_R 992 -128 R180
WINDOW 0 27 12 Left 2
WINDOW 3 27 -8 Left 2
SYMATTR InstName R11
SYMATTR Value 1250k
SYMATTR SpiceLine tol=1 pwr=0.125
SYMBOL smt_R 1120 -240 M180
WINDOW 0 27 12 Left 2
WINDOW 3 27 -8 Left 2
SYMATTR InstName R13
SYMATTR Value 1250k
SYMATTR SpiceLine tol=1 pwr=0.125
SYMBOL smt_R 1120 -128 M180
WINDOW 0 27 12 Left 2
WINDOW 3 27 -8 Left 2
SYMATTR InstName R14
SYMATTR Value 1250k
SYMATTR SpiceLine tol=1 pwr=0.125
SYMBOL smt_R 1056 0 R270
WINDOW 0 23 -8 VTop 2
WINDOW 3 -23 -8 VBottom 2
SYMATTR InstName R18
SYMATTR Value 100
SYMATTR SpiceLine tol=1 pwr=0.125
SYMBOL Edtronix\\p-mos\\smt_fds4435_to8 1488 -400 R0
SYMATTR InstName U3
SYMBOL Edtronix\\n-mos\\smt_irlml-2402 -64 240 R0
WINDOW 3 26 46 Top 2
SYMATTR InstName U1
SYMBOL Edtronix\\n-mos\\smt_irlml-2402 384 240 R0
WINDOW 3 21 42 Top 2
SYMATTR InstName U2
SYMBOL smt_R 64 -448 R0
SYMATTR InstName R12
SYMATTR Value 1250k
SYMATTR SpiceLine tol=1 pwr=0.125
TEXT -232 -656 Left 2 ;.dc V1 2 5 50u
TEXT -8 -656 Left 2 ;.dc V1 5 2 50u
TEXT 552 -496 Left 2 ;Set Von [10k-200k]\n( >R = >Von )
TEXT 984 -496 Left 2 ;Feedback Loop\n(3000k-10000k)
TEXT 704 624 Left 2 ;Auswertung: \n~~~~~~~~~~~~~~\nZ:  4V / 100mA \n \nVswON    =  ~3.25V\nVswOFF   = ~2.95V\n.\nInull         =  <0.5uA - 0.25uA\nTtimeout =  ~2s ( 0.47u|2.5V)        --> ( ~4s/1uF)\n. \nToff(min) =  ~10mS (100n|2.5V & after "L")   \nVoff(min) =  >2.0V (R=100k)  (Toff starts with Voff back to 0V="L")
TEXT 240 -264 Left 2 ;Adj (VswON)\n(10k-1000k)
TEXT 200 -656 Left 2 !.tran 0 15s 100u 200u startup
TEXT 472 864 Right 2 !.param x=3mS ; PWM blank
TEXT 472 928 Right 2 !.param Ton=x Toff=Tp-x
TEXT 472 896 Right 2 !.param Tp=11s
TEXT -712 -128 Left 2 ;dual led (red) with ~3.2V VcutOff (ref. to BZX 3.3V)
TEXT -1104 48 Left 2 ;Akku (LiI):\n~~~~~~~~~~~~~\n \nVuse   = 4.2 - 3.6V\nVmin   = 3.0V
TEXT 96 328 Left 2 ;Timing Capacity\n(0.5u - 30u)
TEXT -352 712 Left 2 ;"H"
TEXT 552 -32 Left 2 ;Zz Adj\nVz= 2.4-9.1V
TEXT -232 -720 Left 2 ;Analyse Methoden:\n~~~~~~~~~~~~~~~~~~~~~~~~~~~~~~~~~~~~~~~~~~~~~
TEXT 1728 -128 Left 2 ;Vlimit:\n \nVmax= ~3.3V
TEXT 1424 216 Left 2 ;Last (~100mA)
TEXT -16 544 Left 2 ;"Temporär Switch"
TEXT 728 544 Left 2 ;"V-Limit Trigger"
TEXT 1392 544 Left 2 ;"static Power Switch"
