Version 4
SHEET 1 1560 680
WIRE -304 -384 -416 -384
WIRE 80 -384 -224 -384
WIRE 352 -384 80 -384
WIRE 640 -384 352 -384
WIRE 1088 -384 640 -384
WIRE 1088 -336 1088 -384
WIRE 352 -320 352 -384
WIRE 640 -320 640 -384
WIRE 80 -304 80 -384
WIRE 80 -192 80 -240
WIRE 352 -176 352 -240
WIRE 480 -176 352 -176
WIRE 640 -176 640 -240
WIRE 640 -176 544 -176
WIRE 352 -144 352 -176
WIRE 480 -144 480 -176
WIRE 544 -144 544 -176
WIRE 80 -64 80 -128
WIRE 352 -32 352 -64
WIRE 352 -32 240 -32
WIRE 512 -32 512 -48
WIRE 512 -32 464 -32
WIRE 640 -32 512 -32
WIRE 1088 -32 1088 -256
WIRE 1088 -32 1216 -96
WIRE 240 16 240 -32
WIRE 464 16 464 -32
WIRE 640 16 640 -32
WIRE -416 48 -416 -384
WIRE -416 64 -416 48
WIRE 80 144 80 16
WIRE 208 144 208 112
WIRE 208 144 80 144
WIRE 272 144 272 112
WIRE 352 144 272 144
WIRE 208 176 208 144
WIRE 464 176 464 96
WIRE 464 176 208 176
WIRE 640 176 640 96
WIRE 960 176 640 176
WIRE 1088 208 1088 -32
WIRE 1088 208 1056 208
WIRE 80 224 80 144
WIRE 352 224 352 144
WIRE 640 224 640 176
WIRE 352 304 352 272
WIRE -416 368 -416 128
WIRE -224 368 -416 368
WIRE 80 368 80 304
WIRE 80 368 -224 368
WIRE 352 368 352 304
WIRE 352 368 80 368
WIRE 640 368 640 304
WIRE 640 368 352 368
WIRE 960 368 960 240
WIRE 960 368 640 368
WIRE 1104 368 960 368
WIRE -224 400 -224 368
FLAG -224 400 0
FLAG 1232 -96 Out
SYMBOL LED 64 -304 R0
SYMATTR InstName D1
SYMATTR Value TLSV5100RED
SYMATTR Description Zener Diode
SYMATTR Type zener
SYMBOL res 1072 -352 R0
SYMATTR InstName R3
SYMATTR Value 75
SYMBOL voltage -416 32 R0
WINDOW 123 0 0 Left 0
WINDOW 39 24 44 Left 2
SYMATTR SpiceLine Rser=5 Cpar=1u
SYMATTR InstName V1
SYMATTR Value 2
SYMBOL LED 64 -192 R0
SYMATTR InstName D3
SYMATTR Value TLSV5100RED
SYMATTR Description Zener Diode
SYMATTR Type zener
SYMBOL smt_R 80 -16 R0
SYMATTR InstName R8
SYMATTR Value 500k
SYMBOL smt_np_D 1264 400 R90
SYMATTR InstName D2
SYMBOL smt_npn 240 64 R270
SYMATTR InstName Q2
SYMBOL smt_R 352 272 R0
SYMATTR InstName R1
SYMATTR Value 200k
SYMBOL smt_R 640 272 R0
SYMATTR InstName R2
SYMATTR Value 1000k
SYMBOL smt_R 352 -272 R0
SYMATTR InstName R4
SYMATTR Value 1000k
SYMBOL smt_R 80 272 R0
SYMATTR InstName R5
SYMATTR Value 1000k
SYMBOL smt_pnp 512 -96 M90
SYMATTR InstName Q3
SYMBOL smt_R 640 -272 R0
SYMATTR InstName R6
SYMATTR Value 10k
SYMBOL smt_R 640 64 R0
SYMATTR InstName R7
SYMATTR Value 100
SYMBOL smt_R 352 -96 R0
SYMATTR InstName R9
SYMATTR Value 100
SYMBOL smt_R 464 64 R0
SYMATTR InstName R10
SYMATTR Value 2000k
SYMBOL smt_R -272 -384 R90
WINDOW 0 -23 -8 VBottom 2
WINDOW 3 23 -8 VTop 2
SYMATTR InstName R11
SYMATTR Value 1
SYMBOL smt_n-mos 1008 208 R0
SYMATTR InstName U1
TEXT 56 512 Left 2 ;.dc V1 1 6 100u
TEXT 1256 152 Left 2 ;<--  ~ 3.3V\n --> ~ 4.2V    \n(Hysterese <0.9V)
TEXT 56 560 Left 2 !.dc V1 6 1 100u
